examples/data/enwl/lv-network-models/network_19/Feeder_1/Lines.txt
New Line.LINE1 Bus1=1 Bus2=2 phases=3 Linecode=3c_185_SAC_ASN Length=1.9769 Units=m
New Line.LINE2 Bus1=2 Bus2=3 phases=3 Linecode=3c_185_SAC_ASN Length=0.089022 Units=m
New Line.LINE3 Bus1=3 Bus2=4 phases=3 Linecode=3c_185_SAC_ASN Length=0.092347 Units=m
New Line.LINE4 Bus1=4 Bus2=5 phases=3 Linecode=3c_185_SAC_ASN Length=0.10771 Units=m
New Line.LINE5 Bus1=5 Bus2=6 phases=3 Linecode=3c_185_SAC_ASN Length=0.097739 Units=m
New Line.LINE6 Bus1=6 Bus2=7 phases=3 Linecode=3c_185_SAC_ASN Length=0.12166 Units=m
New Line.LINE7 Bus1=7 Bus2=8 phases=3 Linecode=3c_185_SAC_ASN Length=0.14981 Units=m
New Line.LINE8 Bus1=8 Bus2=9 phases=3 Linecode=3c_185_SAC_ASN Length=0.14375 Units=m
New Line.LINE9 Bus1=9 Bus2=10 phases=3 Linecode=3c_185_SAC_ASN Length=0.089308 Units=m
New Line.LINE10 Bus1=10 Bus2=11 phases=3 Linecode=3c_185_SAC_ASN Length=0.090785 Units=m
New Line.LINE11 Bus1=11 Bus2=12 phases=3 Linecode=3c_185_SAC_ASN Length=0.11295 Units=m
New Line.LINE12 Bus1=12 Bus2=13 phases=3 Linecode=3c_185_SAC_ASN Length=0.10435 Units=m
New Line.LINE13 Bus1=13 Bus2=14 phases=3 Linecode=3c_185_SAC_ASN Length=0.11827 Units=m
New Line.LINE14 Bus1=14 Bus2=15 phases=3 Linecode=3c_185_SAC_ASN Length=0.315 Units=m
New Line.LINE15 Bus1=15 Bus2=16 phases=3 Linecode=3c_185_SAC_ASN Length=0.46806 Units=m
New Line.LINE16 Bus1=16 Bus2=17 phases=3 Linecode=3c_185_SAC_ASN Length=1.9391 Units=m
New Line.LINE17 Bus1=17 Bus2=18 phases=3 Linecode=3c_185_SAC_ASN Length=4.2382 Units=m
New Line.LINE18 Bus1=18 Bus2=19 phases=3 Linecode=3c_185_SAC_ASN Length=1.006 Units=m
New Line.LINE19 Bus1=19 Bus2=20 phases=3 Linecode=3c_185_SAC_ASN Length=1.1092 Units=m
New Line.LINE20 Bus1=20 Bus2=21 phases=3 Linecode=3c_185_SAC_ASN Length=0.17149 Units=m
New Line.LINE21 Bus1=21 Bus2=22 phases=3 Linecode=3c_185_SAC_ASN Length=0.41076 Units=m
New Line.LINE22 Bus1=22 Bus2=23 phases=3 Linecode=5c_.2 Length=0.45012 Units=m
New Line.LINE23 Bus1=23 Bus2=24 phases=3 Linecode=5c_.2 Length=0.071589 Units=m
New Line.LINE24 Bus1=24 Bus2=25 phases=3 Linecode=5c_.2 Length=0.096208 Units=m
New Line.LINE25 Bus1=25 Bus2=26 phases=3 Linecode=5c_.2 Length=0.070178 Units=m
New Line.LINE26 Bus1=26 Bus2=27 phases=3 Linecode=5c_.2 Length=0.094112 Units=m
New Line.LINE27 Bus1=27 Bus2=28 phases=3 Linecode=5c_.2 Length=14.1049 Units=m
New Line.LINE28 Bus1=28 Bus2=29 phases=3 Linecode=5c_.2 Length=4.137 Units=m
New Line.LINE29 Bus1=29 Bus2=30 phases=3 Linecode=5c_.2 Length=7.0991 Units=m
New Line.LINE30 Bus1=30 Bus2=31 phases=3 Linecode=5c_.2 Length=0.45962 Units=m
New Line.LINE31 Bus1=31 Bus2=32 phases=3 Linecode=5c_.2 Length=0.63908 Units=m
New Line.LINE32 Bus1=32 Bus2=33 phases=3 Linecode=5c_.2 Length=0.50249 Units=m
New Line.LINE33 Bus1=33 Bus2=34 phases=3 Linecode=5c_.2 Length=0.37014 Units=m
New Line.LINE34 Bus1=34 Bus2=35 phases=3 Linecode=5c_.2 Length=0.1986 Units=m
New Line.LINE35 Bus1=35 Bus2=36 phases=3 Linecode=5c_.2 Length=0.198 Units=m
New Line.LINE36 Bus1=36 Bus2=37 phases=3 Linecode=5c_.2 Length=8.2787 Units=m
New Line.LINE37 Bus1=37 Bus2=38 phases=3 Linecode=5c_.2 Length=0.32733 Units=m
New Line.LINE38 Bus1=38 Bus2=39 phases=3 Linecode=5c_.2 Length=0.25393 Units=m
New Line.LINE39 Bus1=39 Bus2=40 phases=3 Linecode=5c_.2 Length=0.33185 Units=m
New Line.LINE40 Bus1=40 Bus2=41 phases=3 Linecode=5c_.2 Length=0.20813 Units=m
New Line.LINE41 Bus1=41 Bus2=42 phases=3 Linecode=5c_.2 Length=0.2294 Units=m
New Line.LINE42 Bus1=42 Bus2=43 phases=3 Linecode=5c_.2 Length=0.242 Units=m
New Line.LINE43 Bus1=43 Bus2=44 phases=3 Linecode=5c_.2 Length=0.12376 Units=m
New Line.LINE44 Bus1=44 Bus2=45 phases=3 Linecode=5c_.2 Length=0.86508 Units=m
New Line.LINE45 Bus1=45 Bus2=46 phases=3 Linecode=5c_.2 Length=1.0664 Units=m
New Line.LINE46 Bus1=46 Bus2=47 phases=3 Linecode=.007_PSC Length=0.18219 Units=m
New Line.LINE47 Bus1=46 Bus2=48 phases=3 Linecode=5c_.2 Length=1.0177 Units=m
New Line.LINE48 Bus1=47 Bus2=49 phases=3 Linecode=.007_PSC Length=0.36814 Units=m
New Line.LINE49 Bus1=48 Bus2=50 phases=3 Linecode=5c_.2 Length=0.43205 Units=m
New Line.LINE50 Bus1=49 Bus2=51 phases=3 Linecode=.007_PSC Length=0.24662 Units=m
New Line.LINE51 Bus1=50 Bus2=52 phases=3 Linecode=5c_.2 Length=0.71897 Units=m
New Line.LINE52 Bus1=51 Bus2=53 phases=3 Linecode=.007_PSC Length=0.27911 Units=m
New Line.LINE53 Bus1=52 Bus2=54 phases=3 Linecode=5c_.2 Length=0.8704 Units=m
New Line.LINE54 Bus1=53 Bus2=55 phases=3 Linecode=.007_PSC Length=0.18643 Units=m
New Line.LINE55 Bus1=54 Bus2=56 phases=3 Linecode=5c_.2 Length=0.8538 Units=m
New Line.LINE56 Bus1=55 Bus2=57 phases=3 Linecode=.007_PSC Length=0.2646 Units=m
New Line.LINE57 Bus1=56 Bus2=58 phases=3 Linecode=5c_.2 Length=0.97228 Units=m
New Line.LINE58 Bus1=57 Bus2=59 phases=3 Linecode=.007_PSC Length=0.20471 Units=m
New Line.LINE59 Bus1=58 Bus2=60 phases=3 Linecode=5c_.2 Length=0.40255 Units=m
New Line.LINE60 Bus1=59 Bus2=61 phases=3 Linecode=.007_PSC Length=0.1089 Units=m
New Line.LINE61 Bus1=60 Bus2=62 phases=3 Linecode=5c_.2 Length=0.70603 Units=m
New Line.LINE62 Bus1=61 Bus2=63 phases=3 Linecode=.007_PSC Length=0.35167 Units=m
New Line.LINE63 Bus1=62 Bus2=64 phases=3 Linecode=5c_.2 Length=0.74389 Units=m
New Line.LINE64 Bus1=63 Bus2=65 phases=3 Linecode=.007_PSC Length=0.17742 Units=m
New Line.LINE65 Bus1=64 Bus2=66 phases=3 Linecode=5c_.2 Length=1.0686 Units=m
New Line.LINE66 Bus1=65 Bus2=67 phases=3 Linecode=.007_PSC Length=0.15044 Units=m
New Line.LINE67 Bus1=66 Bus2=68 phases=3 Linecode=5c_.2 Length=0.70046 Units=m
New Line.LINE68 Bus1=67 Bus2=69 phases=3 Linecode=.007_PSC Length=0.22168 Units=m
New Line.LINE69 Bus1=68 Bus2=70 phases=3 Linecode=5c_.2 Length=0.63346 Units=m
New Line.LINE70 Bus1=69 Bus2=71 phases=3 Linecode=.007_PSC Length=0.37384 Units=m
New Line.LINE71 Bus1=70 Bus2=72 phases=3 Linecode=5c_.2 Length=0.43544 Units=m
New Line.LINE72 Bus1=72 Bus2=73 phases=3 Linecode=5c_.2 Length=0.51761 Units=m
New Line.LINE73 Bus1=73 Bus2=74 phases=3 Linecode=5c_.2 Length=0.7715 Units=m
New Line.LINE74 Bus1=74 Bus2=75 phases=3 Linecode=5c_.2 Length=0.63292 Units=m
New Line.LINE75 Bus1=75 Bus2=76 phases=3 Linecode=5c_.2 Length=0.58992 Units=m
New Line.LINE76 Bus1=76 Bus2=77 phases=3 Linecode=5c_.2 Length=0.84861 Units=m
New Line.LINE77 Bus1=77 Bus2=78 phases=3 Linecode=5c_.2 Length=0.37777 Units=m
New Line.LINE78 Bus1=78 Bus2=79 phases=3 Linecode=5c_.2 Length=0.23247 Units=m
New Line.LINE79 Bus1=79 Bus2=80 phases=3 Linecode=5c_.2 Length=0.2443 Units=m
New Line.LINE80 Bus1=80 Bus2=81 phases=3 Linecode=5c_.2 Length=0.71312 Units=m
New Line.LINE81 Bus1=81 Bus2=82 phases=3 Linecode=5c_.2 Length=2.1923 Units=m
New Line.LINE82 Bus1=82 Bus2=83 phases=3 Linecode=5c_.2 Length=1.2512 Units=m
New Line.LINE83 Bus1=83 Bus2=84 phases=3 Linecode=5c_.2 Length=1.7023 Units=m
New Line.LINE84 Bus1=84 Bus2=85 phases=3 Linecode=5c_.2 Length=6.6831 Units=m
New Line.LINE85 Bus1=85 Bus2=86 phases=3 Linecode=.007_PSC Length=0.17438 Units=m
New Line.LINE86 Bus1=85 Bus2=87 phases=3 Linecode=5c_.2 Length=3.6286 Units=m
New Line.LINE87 Bus1=86 Bus2=88 phases=3 Linecode=.007_PSC Length=0.15754 Units=m
New Line.LINE88 Bus1=87 Bus2=89 phases=3 Linecode=5c_.2 Length=6.3857 Units=m
New Line.LINE89 Bus1=88 Bus2=90 phases=3 Linecode=.007_PSC Length=0.085428 Units=m
New Line.LINE90 Bus1=89 Bus2=91 phases=3 Linecode=5c_.2 Length=1.8398 Units=m
New Line.LINE91 Bus1=90 Bus2=92 phases=3 Linecode=.007_PSC Length=0.055785 Units=m
New Line.LINE92 Bus1=91 Bus2=93 phases=3 Linecode=5c_.2 Length=4.4754 Units=m
New Line.LINE93 Bus1=92 Bus2=94 phases=3 Linecode=.007_PSC Length=0.107 Units=m
New Line.LINE94 Bus1=93 Bus2=95 phases=3 Linecode=5c_.2 Length=0.76892 Units=m
New Line.LINE95 Bus1=93 Bus2=96 phases=3 Linecode=5c_.2 Length=0.36862 Units=m
New Line.LINE96 Bus1=94 Bus2=97 phases=3 Linecode=.007_PSC Length=0.10878 Units=m
New Line.LINE97 Bus1=95 Bus2=98 phases=3 Linecode=5c_.2 Length=2.8072 Units=m
New Line.LINE98 Bus1=96 Bus2=99 phases=3 Linecode=5c_.2 Length=0.05728 Units=m
New Line.LINE99 Bus1=97 Bus2=100 phases=3 Linecode=.007_PSC Length=0.21019 Units=m
New Line.LINE100 Bus1=98 Bus2=101 phases=3 Linecode=5c_.2 Length=3.8449 Units=m
New Line.LINE101 Bus1=99 Bus2=102 phases=3 Linecode=5c_.2 Length=0.11423 Units=m
New Line.LINE102 Bus1=100 Bus2=103 phases=3 Linecode=.007_PSC Length=0.20813 Units=m
New Line.LINE103 Bus1=101 Bus2=104 phases=3 Linecode=5c_.2 Length=5.1529 Units=m
New Line.LINE104 Bus1=102 Bus2=105 phases=3 Linecode=5c_.2 Length=0.071868 Units=m
New Line.LINE105 Bus1=103 Bus2=106 phases=3 Linecode=.007_PSC Length=0.11423 Units=m
New Line.LINE106 Bus1=104 Bus2=107 phases=3 Linecode=5c_.2 Length=5.7412 Units=m
New Line.LINE107 Bus1=105 Bus2=108 phases=3 Linecode=5c_.2 Length=0.10255 Units=m
New Line.LINE108 Bus1=106 Bus2=109 phases=3 Linecode=.007_PSC Length=0.13294 Units=m
New Line.LINE109 Bus1=107 Bus2=110 phases=3 Linecode=5c_.2 Length=0.17881 Units=m
New Line.LINE110 Bus1=107 Bus2=111 phases=3 Linecode=5c_.2 Length=1.1015 Units=m
New Line.LINE111 Bus1=108 Bus2=112 phases=3 Linecode=5c_.2 Length=0.11543 Units=m
New Line.LINE112 Bus1=109 Bus2=113 phases=3 Linecode=.007_PSC Length=0.055785 Units=m
New Line.LINE113 Bus1=110 Bus2=114 phases=3 Linecode=5c_.2 Length=0.074653 Units=m
New Line.LINE114 Bus1=111 Bus2=115 phases=3 Linecode=5c_.2 Length=6.501 Units=m
New Line.LINE115 Bus1=112 Bus2=116 phases=3 Linecode=5c_.2 Length=0.19777 Units=m
New Line.LINE116 Bus1=113 Bus2=117 phases=3 Linecode=.007_PSC Length=0.13463 Units=m
New Line.LINE117 Bus1=114 Bus2=118 phases=3 Linecode=5c_.2 Length=0.077621 Units=m
New Line.LINE118 Bus1=115 Bus2=119 phases=3 Linecode=5c_.2 Length=5.1819 Units=m
New Line.LINE119 Bus1=116 Bus2=120 phases=3 Linecode=5c_.2 Length=0.11602 Units=m
New Line.LINE120 Bus1=117 Bus2=121 phases=3 Linecode=.007_PSC Length=0.060374 Units=m
New Line.LINE121 Bus1=118 Bus2=122 phases=3 Linecode=5c_.2 Length=1.3555 Units=m
New Line.LINE122 Bus1=119 Bus2=123 phases=3 Linecode=4c_.2_AS Length=0.30198 Units=m
New Line.LINE123 Bus1=119 Bus2=124 phases=3 Linecode=5c_.2 Length=0.41863 Units=m
New Line.LINE124 Bus1=120 Bus2=125 phases=3 Linecode=5c_.2 Length=0.071868 Units=m
New Line.LINE125 Bus1=121 Bus2=126 phases=3 Linecode=.007_PSC Length=0.50356 Units=m
New Line.LINE126 Bus1=122 Bus2=127 phases=3 Linecode=5c_.2 Length=0.05991 Units=m
New Line.LINE127 Bus1=123 Bus2=128 phases=3 Linecode=4c_.2_AS Length=0.068884 Units=m
New Line.LINE128 Bus1=124 Bus2=129 phases=3 Linecode=5c_.2 Length=1.3932 Units=m
New Line.LINE129 Bus1=125 Bus2=130 phases=3 Linecode=5c_.2 Length=0.188 Units=m
New Line.LINE130 Bus1=127 Bus2=131 phases=3 Linecode=5c_.2 Length=0.19558 Units=m
New Line.LINE131 Bus1=128 Bus2=132 phases=3 Linecode=4c_.2_AS Length=0.070064 Units=m
New Line.LINE132 Bus1=129 Bus2=133 phases=3 Linecode=5c_.2 Length=0.29186 Units=m
New Line.LINE133 Bus1=130 Bus2=134 phases=3 Linecode=5c_.2 Length=0.30662 Units=m
New Line.LINE134 Bus1=131 Bus2=135 phases=3 Linecode=5c_.2 Length=0.092087 Units=m
New Line.LINE135 Bus1=132 Bus2=136 phases=3 Linecode=4c_.2_AS Length=0.11628 Units=m
New Line.LINE136 Bus1=133 Bus2=137 phases=3 Linecode=5c_.2 Length=0.54124 Units=m
New Line.LINE137 Bus1=133 Bus2=138 phases=3 Linecode=5c_.2 Length=0.22385 Units=m
New Line.LINE138 Bus1=133 Bus2=139 phases=3 Linecode=5c_.2 Length=2.2946 Units=m
New Line.LINE139 Bus1=135 Bus2=140 phases=3 Linecode=5c_.2 Length=0.25543 Units=m
New Line.LINE140 Bus1=136 Bus2=141 phases=3 Linecode=4c_.2_AS Length=0.32421 Units=m
New Line.LINE141 Bus1=137 Bus2=142 phases=3 Linecode=5c_.2 Length=0.1713 Units=m
New Line.LINE142 Bus1=138 Bus2=143 phases=3 Linecode=5c_.2 Length=0.1842 Units=m
New Line.LINE143 Bus1=139 Bus2=144 phases=3 Linecode=5c_.2 Length=1.512 Units=m
New Line.LINE144 Bus1=140 Bus2=145 phases=3 Linecode=5c_.2 Length=0.44429 Units=m
New Line.LINE145 Bus1=141 Bus2=146 phases=3 Linecode=4c_.2_AS Length=0.060017 Units=m
New Line.LINE146 Bus1=142 Bus2=147 phases=3 Linecode=5c_.2 Length=0.04329 Units=m
New Line.LINE147 Bus1=143 Bus2=148 phases=3 Linecode=5c_.2 Length=0.24113 Units=m
New Line.LINE148 Bus1=144 Bus2=149 phases=3 Linecode=5c_.2 Length=0.056276 Units=m
New Line.LINE149 Bus1=146 Bus2=150 phases=3 Linecode=4c_.2_AS Length=0.068066 Units=m
New Line.LINE150 Bus1=147 Bus2=151 phases=3 Linecode=5c_.2 Length=0.048466 Units=m
New Line.LINE151 Bus1=148 Bus2=152 phases=3 Linecode=5c_.2 Length=0.17113 Units=m
New Line.LINE152 Bus1=149 Bus2=153 phases=3 Linecode=5c_.2 Length=0.13422 Units=m
New Line.LINE153 Bus1=150 Bus2=154 phases=3 Linecode=4c_.2_AS Length=0.046174 Units=m
New Line.LINE154 Bus1=151 Bus2=155 phases=3 Linecode=5c_.2 Length=0.05099 Units=m
New Line.LINE155 Bus1=152 Bus2=156 phases=3 Linecode=5c_.2 Length=0.12083 Units=m
New Line.LINE156 Bus1=153 Bus2=157 phases=3 Linecode=5c_.2 Length=0.059605 Units=m
New Line.LINE157 Bus1=154 Bus2=158 phases=3 Linecode=4c_.2_AS Length=0.062201 Units=m
New Line.LINE158 Bus1=155 Bus2=159 phases=3 Linecode=5c_.2 Length=0.069925 Units=m
New Line.LINE159 Bus1=156 Bus2=160 phases=3 Linecode=5c_.2 Length=0.084694 Units=m
New Line.LINE160 Bus1=157 Bus2=161 phases=3 Linecode=5c_.2 Length=0.072628 Units=m
New Line.LINE161 Bus1=158 Bus2=162 phases=3 Linecode=4c_.2_AS Length=0.06166 Units=m
New Line.LINE162 Bus1=159 Bus2=163 phases=3 Linecode=5c_.2 Length=0.062125 Units=m
New Line.LINE163 Bus1=160 Bus2=164 phases=3 Linecode=5c_.2 Length=0.20714 Units=m
New Line.LINE164 Bus1=161 Bus2=165 phases=3 Linecode=5c_.2 Length=0.04684 Units=m
New Line.LINE165 Bus1=162 Bus2=166 phases=3 Linecode=4c_.2_AS Length=0.085703 Units=m
New Line.LINE166 Bus1=163 Bus2=167 phases=3 Linecode=5c_.2 Length=0.031321 Units=m
New Line.LINE167 Bus1=164 Bus2=168 phases=3 Linecode=5c_.2 Length=1.1131 Units=m
New Line.LINE168 Bus1=165 Bus2=169 phases=3 Linecode=5c_.2 Length=0.044553 Units=m
New Line.LINE169 Bus1=166 Bus2=170 phases=3 Linecode=4c_.2_AS Length=0.70981 Units=m
New Line.LINE170 Bus1=167 Bus2=171 phases=3 Linecode=5c_.2 Length=0.42 Units=m
New Line.LINE171 Bus1=168 Bus2=172 phases=3 Linecode=5c_.2 Length=0.16592 Units=m
New Line.LINE172 Bus1=169 Bus2=173 phases=3 Linecode=5c_.2 Length=0.084095 Units=m
New Line.LINE173 Bus1=170 Bus2=174 phases=3 Linecode=4c_.2_AS Length=0.038118 Units=m
New Line.LINE174 Bus1=172 Bus2=175 phases=3 Linecode=5c_.2 Length=0.14412 Units=m
New Line.LINE175 Bus1=173 Bus2=176 phases=3 Linecode=5c_.2 Length=0.10317 Units=m
New Line.LINE176 Bus1=174 Bus2=177 phases=3 Linecode=4c_.2_AS Length=0.046098 Units=m
New Line.LINE177 Bus1=175 Bus2=178 phases=3 Linecode=5c_.2 Length=0.80388 Units=m
New Line.LINE178 Bus1=176 Bus2=179 phases=3 Linecode=5c_.2 Length=0.077006 Units=m
New Line.LINE179 Bus1=177 Bus2=180 phases=3 Linecode=4c_.2_AS Length=0.087098 Units=m
New Line.LINE180 Bus1=178 Bus2=181 phases=3 Linecode=5c_.2 Length=0.13713 Units=m
New Line.LINE181 Bus1=179 Bus2=182 phases=3 Linecode=5c_.2 Length=0.1196 Units=m
New Line.LINE182 Bus1=180 Bus2=183 phases=3 Linecode=4c_.2_AS Length=0.39988 Units=m
New Line.LINE183 Bus1=181 Bus2=184 phases=3 Linecode=5c_.2 Length=1.5337 Units=m
New Line.LINE184 Bus1=182 Bus2=185 phases=3 Linecode=5c_.2 Length=0.41448 Units=m
New Line.LINE185 Bus1=183 Bus2=186 phases=3 Linecode=4c_.2_AS Length=1.7272 Units=m
New Line.LINE186 Bus1=184 Bus2=187 phases=3 Linecode=5c_.2 Length=0.98992 Units=m
New Line.LINE187 Bus1=185 Bus2=188 phases=3 Linecode=5c_.2 Length=8.1985 Units=m
New Line.LINE188 Bus1=186 Bus2=189 phases=3 Linecode=4c_.2_AS Length=10.013 Units=m
New Line.LINE189 Bus1=188 Bus2=190 phases=3 Linecode=5c_.2 Length=1.8455 Units=m
New Line.LINE190 Bus1=189 Bus2=191 phases=3 Linecode=4c_.2_AS Length=11.7599 Units=m
New Line.LINE191 Bus1=190 Bus2=192 phases=3 Linecode=.04_LTC Length=0.40786 Units=m
New Line.LINE192 Bus1=190 Bus2=193 phases=3 Linecode=5c_.2 Length=3.1035 Units=m
New Line.LINE193 Bus1=191 Bus2=194 phases=3 Linecode=4c_.2_AS Length=6.9182 Units=m
New Line.LINE194 Bus1=191 Bus2=195 phases=3 Linecode=4c_.2_AS Length=0.11079 Units=m
New Line.LINE195 Bus1=192 Bus2=196 phases=3 Linecode=.04_LTC Length=0.053759 Units=m
New Line.LINE196 Bus1=193 Bus2=197 phases=3 Linecode=5c_.2 Length=0.35137 Units=m
New Line.LINE197 Bus1=194 Bus2=198 phases=3 Linecode=4c_.2_AS Length=6.2818 Units=m
New Line.LINE198 Bus1=195 Bus2=199 phases=3 Linecode=4c_.2_AS Length=0.059483 Units=m
New Line.LINE199 Bus1=196 Bus2=200 phases=3 Linecode=.04_LTC Length=0.042 Units=m
New Line.LINE200 Bus1=197 Bus2=201 phases=3 Linecode=5c_.2 Length=0.11552 Units=m
...
